Circuit: * C:\Users\under\OneDrive - Universidad de Oviedo\Uni\Y2T1\TEC\PL\S3\Ejercicio1.asc

.OP point found by inspection.

Date: Wed Oct 13 12:35:57 2021
Total elapsed time: 0.092 seconds.

tnom = 27
temp = 27
method = modified trap
totiter = 2164
traniter = 2164
tranpoints = 1061
accept = 1053
rejected = 8
matrix size = 3
fillins = 0
solver = Normal
Matrix Compiler1: 104 bytes object code size  0.1/0.1/[0.0]
Matrix Compiler2: 189 bytes object code size  0.1/0.1/[0.0]

