Circuit: * C:\Users\under\OneDrive - Universidad de Oviedo\Uni\Y2T1\TEC\PL\Examen\Draft6.asc

WARNING: Node NC_01 is floating.
WARNING: Node NC_02 is floating.

WARNING: Less than two connections to node NC_01.  This node is used by V1.
WARNING: Less than two connections to node NC_02.  This node is used by V2.
Direct Newton iteration for .op point succeeded.

Date: Wed Dec 01 16:37:11 2021
Total elapsed time: 0.119 seconds.

tnom = 27
temp = 27
method = modified trap
totiter = 2403
traniter = 2395
tranpoints = 1169
accept = 1162
rejected = 7
matrix size = 11
fillins = 2
solver = Normal
Matrix Compiler1: 288 bytes object code size  0.2/0.1/[0.1]
Matrix Compiler2: 569 bytes object code size  0.1/0.2/[0.1]

