Circuit: * C:\Users\under\OneDrive - Universidad de Oviedo\Uni\Y2T1\TEC\PL\Examen\Parte3a.asc

Direct Newton iteration for .op point succeeded.

Date: Wed Dec 01 16:54:00 2021
Total elapsed time: 0.132 seconds.

tnom = 27
temp = 27
method = modified trap
totiter = 2403
traniter = 2395
tranpoints = 1169
accept = 1162
rejected = 7
matrix size = 9
fillins = 0
solver = Normal
Matrix Compiler1: 152 bytes object code size  0.1/0.1/[0.1]
Matrix Compiler2: 383 bytes object code size  0.1/0.1/[0.1]

