Circuit: * C:\Users\under\OneDrive - Universidad de Oviedo\Uni\Y2T1\TEC\PL\Examen\Parte3b.asc

Direct Newton iteration for .op point succeeded.
Ignoring empty pin current: Ix(u3:vcc)
Ignoring empty pin current: Ix(u1:vcc)
Ignoring empty pin current: Ix(u2:vcc)
Ignoring empty pin current: Ix(u4:vcc)
Ignoring empty pin current: Ix(u5:vcc)
Ignoring empty pin current: Ix(u3:vcc)
Ignoring empty pin current: Ix(u1:vcc)
Ignoring empty pin current: Ix(u2:vcc)
Ignoring empty pin current: Ix(u4:vcc)
Ignoring empty pin current: Ix(u5:vcc)

Date: Wed Dec 01 16:52:09 2021
Total elapsed time: 0.214 seconds.

tnom = 27
temp = 27
method = modified trap
totiter = 3268
traniter = 3224
tranpoints = 1485
accept = 1405
rejected = 80
matrix size = 62
fillins = 4
solver = Normal
Matrix Compiler1: 1.65 KB object code size  0.9/0.6/[0.3]
Matrix Compiler2: off  [0.6]/1.1/1.1

