Circuit: * C:\Users\under\OneDrive - Universidad de Oviedo\Uni\Y2T1\TEC\PL\S4\Draft2.asc

Direct Newton iteration for .op point succeeded.

Date: Sun Oct 24 13:17:34 2021
Total elapsed time: 0.125 seconds.

tnom = 27
temp = 27
method = modified trap
totiter = 2156
traniter = 2146
tranpoints = 1043
accept = 1043
rejected = 0
matrix size = 10
fillins = 0
solver = Normal
Matrix Compiler1: 560 bytes object code size  0.3/0.2/[0.2]
Matrix Compiler2: 754 bytes object code size  0.2/0.2/[0.2]

