Circuit: * C:\Users\under\OneDrive - Universidad de Oviedo\Uni\Y2T1\TEC\PL\S4\Draft1.asc

Direct Newton iteration for .op point succeeded.

Date: Wed Oct 20 17:44:38 2021
Total elapsed time: 0.091 seconds.

tnom = 27
temp = 27
method = modified trap
totiter = 2138
traniter = 2126
tranpoints = 1054
accept = 1054
rejected = 0
matrix size = 11
fillins = 0
solver = Normal
Matrix Compiler1: 556 bytes object code size  0.1/0.1/[0.1]
Matrix Compiler2: 813 bytes object code size  0.1/0.1/[0.1]

