Circuit: * C:\Users\under\OneDrive - Universidad de Oviedo\Uni\Y2T1\TEC\PL\S2\Draft1.asc

.OP point found by inspection.

Date: Wed Oct 06 16:29:48 2021
Total elapsed time: 0.043 seconds.

tnom = 27
temp = 27
method = modified trap
totiter = 2142
traniter = 2142
tranpoints = 1042
accept = 1042
rejected = 0
matrix size = 3
fillins = 0
solver = Normal
Matrix Compiler1: 86 bytes object code size  0.0/0.1/[0.0]
Matrix Compiler2: 163 bytes object code size  0.0/0.1/[0.0]

