Circuit: * C:\Users\under\OneDrive - Universidad de Oviedo\Uni\Y2T1\TEC\PL\S2\Ejercicio3(1).asc

.OP point found by inspection.

Date: Tue Oct 05 23:03:54 2021
Total elapsed time: 0.190 seconds.

tnom = 27
temp = 27
method = modified trap
totiter = 13954
traniter = 13954
tranpoints = 6978
accept = 4857
rejected = 2121
matrix size = 3
fillins = 0
solver = Normal
Matrix Compiler1: 50 bytes object code size  0.0/0.0/[0.0]
Matrix Compiler2: 175 bytes object code size  0.0/0.0/[0.0]

