Circuit: * C:\Users\under\OneDrive - Universidad de Oviedo\Uni\Y2T1\TEC\PL\S6\Draft2.asc

Direct Newton iteration for .op point succeeded.

Date: Wed Nov 10 17:10:13 2021
Total elapsed time: 0.089 seconds.

tnom = 27
temp = 27
method = modified trap
totiter = 3753
traniter = 3737
tranpoints = 1692
accept = 1513
rejected = 179
matrix size = 10
fillins = 0
solver = Normal
Matrix Compiler1: 524 bytes object code size  0.1/0.1/[0.1]
Matrix Compiler2: off  [0.1]/0.1/0.1

