Circuit: * C:\Users\under\OneDrive - Universidad de Oviedo\Uni\Y2T1\TEC\PL\S6\Draft3.asc

Direct Newton iteration for .op point succeeded.

Date: Wed Nov 17 16:44:48 2021
Total elapsed time: 0.098 seconds.

tnom = 27
temp = 27
method = modified trap
totiter = 2611
traniter = 2602
tranpoints = 1291
accept = 1286
rejected = 5
matrix size = 7
fillins = 0
solver = Normal
Matrix Compiler1: 142 bytes object code size  0.1/0.1/[0.1]
Matrix Compiler2: off  [0.1]/0.1/0.1

