Circuit: * C:\Users\under\OneDrive - Universidad de Oviedo\Uni\Y2T1\TEC\PL\S7\Draft5.asc

Direct Newton iteration for .op point succeeded.

Date: Wed Nov 24 01:42:02 2021
Total elapsed time: 0.115 seconds.

tnom = 27
temp = 27
method = modified trap
totiter = 3321
traniter = 3312
tranpoints = 1592
accept = 1579
rejected = 13
matrix size = 16
fillins = 0
solver = Normal
Matrix Compiler1: 286 bytes object code size  0.3/0.2/[0.1]
Matrix Compiler2: 684 bytes object code size  0.2/0.4/[0.2]

