Circuit: * C:\Users\under\OneDrive - Universidad de Oviedo\Uni\Y2T1\TEC\PL\S7\Draft4.asc

WARNING: Less than two connections to node D.  This node is used by V4.
Direct Newton iteration for .op point succeeded.

Date: Wed Nov 24 01:06:33 2021
Total elapsed time: 0.072 seconds.

tnom = 27
temp = 27
method = modified trap
totiter = 3366
traniter = 3358
tranpoints = 1605
accept = 1588
rejected = 17
matrix size = 12
fillins = 0
solver = Normal
Matrix Compiler1: 212 bytes object code size  0.1/0.1/[0.0]
Matrix Compiler2: 514 bytes object code size  0.1/0.1/[0.0]

